
  Mrv2101 06082116133D          

 33 35  0  0  0  0            999 V2000
    8.4310   36.9470   23.0780 C   0  0  0  0  0  0  0  0  0  0  0  0
   -0.5110   39.2400   21.6320 N   0  0  2  0  0  0  0  0  0  0  0  0
    4.9160   36.1230   23.4600 O   0  0  0  0  0  0  0  0  0  0  0  0
    9.5680   36.8740   23.8950 C   0  0  0  0  0  0  0  0  0  0  0  0
    1.6560   37.3680   20.0020 O   0  0  0  0  0  0  0  0  0  0  0  0
    9.4960   36.1840   25.0940 C   0  0  0  0  0  0  0  0  0  0  0  0
    0.3860   37.3790   24.6440 O   0  0  0  0  0  0  0  0  0  0  0  0
    8.3050   35.5850   25.4990 C   0  0  0  0  0  0  0  0  0  0  0  0
    0.0990   40.0920   24.1690 O   0  0  0  0  0  0  0  0  0  0  0  0
    7.1710   35.6580   24.6960 C   0  0  0  0  0  0  0  0  0  0  0  0
   -2.0270   39.9360   24.7950 O   0  0  0  0  0  0  0  0  0  0  0  0
    7.2470   36.3430   23.4890 C   0  0  0  0  0  0  0  0  0  0  0  0
   10.8920   37.5200   23.4690 C   0  0  0  0  0  0  0  0  0  0  0  0
   11.9600   36.6950   23.1410 C   0  0  0  0  0  0  0  0  0  0  0  0
   13.1650   37.2390   22.7240 C   0  0  0  0  0  0  0  0  0  0  0  0
   13.3130   38.6080   22.6380 C   0  0  0  0  0  0  0  0  0  0  0  0
   12.2400   39.4310   22.9540 C   0  0  0  0  0  0  0  0  0  0  0  0
   11.0280   38.8990   23.3820 C   0  0  0  0  0  0  0  0  0  0  0  0
    8.4370   37.6690   21.7320 C   0  0  0  0  0  0  0  0  0  0  0  0
    5.9950   36.4270   22.6010 C   0  0  0  0  0  0  0  0  0  0  0  0
    3.6180   36.5440   23.0470 C   0  0  0  0  0  0  0  0  0  0  0  0
    2.6480   36.7430   24.0220 C   0  0  0  0  0  0  0  0  0  0  0  0
    1.3700   37.1560   23.6610 C   0  0  0  0  0  0  0  0  0  0  0  0
    1.0570   37.3590   22.3240 C   0  0  0  0  0  0  0  0  0  0  0  0
    2.0170   37.1390   21.3470 C   0  0  0  0  0  0  0  0  0  0  0  0
    3.3020   36.7360   21.7050 C   0  0  0  0  0  0  0  0  0  0  0  0
    2.0990   36.4550   19.0440 C   0  0  0  0  0  0  0  0  0  0  0  0
    0.8610   37.6720   25.9250 C   0  0  0  0  0  0  0  0  0  0  0  0
   -0.3720   37.8030   21.9060 C   0  0  0  0  0  0  0  0  0  0  0  0
   -1.6240   39.7390   22.4410 C   0  0  1  0  0  0  0  0  0  0  0  0
   -1.1450   39.9390   23.8850 C   0  0  0  0  0  0  0  0  0  0  0  0
   -2.2050   41.0400   21.8970 C   0  0  0  0  0  0  0  0  0  0  0  0
   -0.7040   39.3870   20.6520 H   0  0  0  0  0  0  0  0  0  0  0  0
  1  4  4  0  0  0  0
  1 12  4  0  0  0  0
  1 19  1  0  0  0  0
  2 29  1  0  0  0  0
  2 30  1  0  0  0  0
  2 33  1  0  0  0  0
  3 20  1  0  0  0  0
  3 21  1  0  0  0  0
  4  6  4  0  0  0  0
  4 13  1  0  0  0  0
  5 25  1  0  0  0  0
  5 27  1  0  0  0  0
  6  8  4  0  0  0  0
  7 23  1  0  0  0  0
  7 28  1  0  0  0  0
  8 10  4  0  0  0  0
  9 31  1  0  0  0  0
 10 12  4  0  0  0  0
 11 31  2  0  0  0  0
 12 20  1  0  0  0  0
 13 14  4  0  0  0  0
 13 18  4  0  0  0  0
 14 15  4  0  0  0  0
 15 16  4  0  0  0  0
 16 17  4  0  0  0  0
 17 18  4  0  0  0  0
 21 22  4  0  0  0  0
 21 26  4  0  0  0  0
 22 23  4  0  0  0  0
 23 24  4  0  0  0  0
 24 25  4  0  0  0  0
 24 29  1  0  0  0  0
 25 26  4  0  0  0  0
 30 31  1  0  0  0  0
 30 32  1  0  0  0  0
M  END
$$$$
